*HEADING
 Beam end force (Mesh 2x16)
*NODE, NSET=ALL
   1 ,  0.00000000000000,  -0.500000000000,  0.000000
   2 ,  0.00000000000000,  0.0000000000000, 0.0000000
   3 ,  0.00000000000000,  0.5000000000000, 0.0000000
   4 ,  0.62500000000000,  -0.500000000000,  0.000000
   5 ,  0.62500000000000,  0.0000000000000, 0.0000000
   6 ,  0.62500000000000,  0.5000000000000, 0.0000000
   7 ,  1.25000000000000,  -0.500000000000,  0.000000
   8 ,  1.25000000000000,  0.0000000000000, 0.0000000
   9 ,  1.25000000000000,  0.5000000000000, 0.0000000
  10 ,  1.87500000000000,  -0.500000000000,  0.000000
  11 ,  1.87500000000000,  0.0000000000000, 0.0000000
  12 ,  1.87500000000000,  0.5000000000000, 0.0000000
  13 ,  2.50000000000000,  -0.500000000000,  0.000000
  14 ,  2.50000000000000,  0.0000000000000, 0.0000000
  15 ,  2.50000000000000,  0.5000000000000, 0.0000000
  16 ,  3.12500000000000,  -0.500000000000,  0.000000
  17 ,  3.12500000000000,  0.0000000000000, 0.0000000
  18 ,  3.12500000000000,  0.5000000000000, 0.0000000
  19 ,  3.75000000000000,  -0.500000000000,  0.000000
  20 ,  3.75000000000000,  0.0000000000000, 0.0000000
** ... 31 like lines cut
*Element, type=S4R, elset=all
   1,   1,   4,  5,   2
    2,   2,   5,  6,   3
    3,   4,   7,  8,   5
    4,   5,   8,  9,   6
    5,   7,  10, 11,   8
    6,   8,  11, 12,   9
    7,  10,  13, 14,  11
    8,  11,  14, 15,  12
    9,  13,  16, 17,  14
    10,  14,  17, 18,  15
    11,  16,  19, 20,  17
    12,  17,  20, 21,  18
    13,  19,  22, 23,  20
    14,  20,  23, 24,  21
    15,  22,  25, 26,  23
    16,  23,  26, 27,  24
    17,  25,  28, 29,  26
    18,  26,  29, 30,  27
    19,  28,  31, 32,  29
    20,  29,  32, 33,  30
** ... 12 like lines cut
*NSET,NSET=LOADed
49, 50, 51
*NSET,NSET=bbb
1,2,3, 4, 5, 6
*SHELL SECTION,elset=all,MATERIAL=A
0.1
*MATERIAL,NAME=A
*ELASTIC
1.2e6,0.0
*BOUNDARY
bbb,encastre
*RESTART,WRITE,FREQ=200
********************
*STEP,INC=40,NLGEOM
*STATIC,DIRECT
0.025,1.0
*controls,parameters=time incrementation
60,60,60,60
*CLOAD
LOADed,3,  1.33333333333333333
*EL PRINT,FRE=0
*NODE FILE,FRE=1,NSET=ALL
U
CF
*NODE Print,FRE=1,NSET=LOADed
U
CF
*END STEP
********************
