*HEADING
 LARGE ELASTIC DEFLECTION OF PINCHED HEMISPHERICAL SHELL
*NODE,NSET=ALL
    1,   0.000000000,  10.000000000,   0.000000000
    2,   0.980171403,   9.951847267,   0.000000000
    3,   1.950903220,   9.807852804,   0.000000000
    4,   2.902846773,   9.569403357,   0.000000000
    5,   3.826834324,   9.238795325,   0.000000000
    6,   4.713967368,   8.819212643,   0.000000000
    7,   5.555702330,   8.314696123,   0.000000000
    8,   6.343932842,   7.730104534,   0.000000000
    9,   7.071067812,   7.071067812,   0.000000000
   10,   7.730104534,   6.343932842,   0.000000000
   11,   8.314696123,   5.555702330,   0.000000000
   12,   8.819212643,   4.713967368,   0.000000000
   13,   9.238795325,   3.826834324,   0.000000000
   14,   9.569403357,   2.902846773,   0.000000000
   15,   9.807852804,   1.950903220,   0.000000000
   16,   9.951847267,   0.980171403,   0.000000000
   17,  10.000000000,   0.000000000,   0.000000000
   18,   0.000000000,   9.969173337,   0.784590957
   19,   0.977149862,   9.921169043,   0.784590957
   20,   1.944889237,   9.777618467,   0.784590957
** ... 269 like lines cut
*Element, type=S4R, elset=all 
    1,   1,   2,  19,  18
    2,   2,   3,  20,  19
    3,   3,   4,  21,  20
    4,   4,   5,  22,  21
    5,   5,   6,  23,  22
    6,   6,   7,  24,  23
    7,   7,   8,  25,  24
    8,   8,   9,  26,  25
    9,   9,  10,  27,  26
   10,  10,  11,  28,  27
   11,  11,  12,  29,  28
   12,  12,  13,  30,  29
   13,  13,  14,  31,  30
   14,  14,  15,  32,  31
   15,  15,  16,  33,  32
   16,  16,  17,  34,  33
   17,  18,  19,  36,  35
   18,  19,  20,  37,  36
   19,  20,  21,  38,  37
   20,  21,  22,  39,  38
** ... 236 like lines cut
*Nset, generate,nset=set1
   1, 17,1
*Nset, generate,nset=set2
   1,273,17
*Nset, generate,nset=set3
  17,289,17
*nset, nset=LOADED
 1,17
*SHELL SECTION,ELSET=ALL,MAT=MAT
 0.04
*MATERIAL,NAME=MAT
*ELASTIC
 6.825e7,0.3
*BOUNDARY
 set2,xsymm
 set3,ysymm
 289,3
************************************************
*RESTART,WRITE,FREQ=900
*STEP,INC=40,NLGEOM
*STATIC,direct
0.025,1.0
*controls,parameters=time incrementation
200,200,200,200
*CLOAD
1,2,100.0
17,1,-100.0
*EL PRINT,FRE=0
*NODE PRINT,FRE=1,NSET=LOADED
U
CF
*NODE FILE,FRE=1,NSET=ALL
U
CF
*END STEP
************************************************